<?xml version="1.0" encoding="UTF-8"?>

<net version="1.20" junctionCornerDetail="5" limitTurnSpeed="5.50" xmlns:xsi="http://www.w3.org/2001/XMLSchema-instance" xsi:noNamespaceSchemaLocation="http://sumo.dlr.de/xsd/net_file.xsd">

    <location netOffset="0.00,0.00" convBoundary="68.50,66.69,336.00,333.43" origBoundary="0.00,0.00,400.00,400.00" projParameter="!"/>

    <edge id=":C2_0" function="internal">
        <lane id=":C2_0_0" index="0" speed="6.52" length="9.05" shape="198.40,207.20 198.05,204.75 197.00,202.99 195.24,201.94 192.79,201.58"/>
    </edge>
    <edge id=":C2_1" function="internal">
        <lane id=":C2_1_0" index="0" speed="13.89" length="14.41" shape="198.40,207.20 198.40,192.79"/>
    </edge>
    <edge id=":C2_2" function="internal">
        <lane id=":C2_2_0" index="0" speed="8.00" length="4.06" shape="198.40,207.20 198.95,203.35 199.04,203.20"/>
    </edge>
    <edge id=":C2_12" function="internal">
        <lane id=":C2_12_0" index="0" speed="8.00" length="10.13" shape="199.04,203.20 200.60,200.60 203.35,198.95 207.20,198.40"/>
    </edge>
    <edge id=":C2_3" function="internal">
        <lane id=":C2_3_0" index="0" speed="6.51" length="9.03" shape="207.20,201.60 204.75,201.95 203.00,203.00 201.95,204.75 201.60,207.20"/>
    </edge>
    <edge id=":C2_4" function="internal">
        <lane id=":C2_4_0" index="0" speed="13.89" length="14.41" shape="207.20,201.60 192.79,201.58"/>
    </edge>
    <edge id=":C2_5" function="internal">
        <lane id=":C2_5_0" index="0" speed="8.01" length="14.20" shape="207.20,201.60 203.35,201.05 200.60,199.40 198.95,196.65 198.40,192.79"/>
    </edge>
    <edge id=":C2_6" function="internal">
        <lane id=":C2_6_0" index="0" speed="6.51" length="9.04" shape="201.60,192.79 201.95,195.24 203.00,197.00 204.75,198.05 207.20,198.40"/>
    </edge>
    <edge id=":C2_7" function="internal">
        <lane id=":C2_7_0" index="0" speed="13.89" length="14.41" shape="201.60,192.79 201.60,207.20"/>
    </edge>
    <edge id=":C2_8" function="internal">
        <lane id=":C2_8_0" index="0" speed="8.00" length="4.07" shape="201.60,192.79 201.05,196.64 200.96,196.80"/>
    </edge>
    <edge id=":C2_13" function="internal">
        <lane id=":C2_13_0" index="0" speed="8.00" length="10.13" shape="200.96,196.80 199.40,199.39 196.64,201.04 192.79,201.58"/>
    </edge>
    <edge id=":C2_9" function="internal">
        <lane id=":C2_9_0" index="0" speed="6.50" length="9.03" shape="192.79,198.38 195.25,198.04 197.00,196.99 198.05,195.24 198.40,192.79"/>
    </edge>
    <edge id=":C2_10" function="internal">
        <lane id=":C2_10_0" index="0" speed="13.89" length="14.41" shape="192.79,198.38 207.20,198.40"/>
    </edge>
    <edge id=":C2_11" function="internal">
        <lane id=":C2_11_0" index="0" speed="8.01" length="14.20" shape="192.79,198.38 196.65,198.94 199.40,200.60 201.05,203.35 201.60,207.20"/>
    </edge>

    <edge id="down_incoming" from="C3" to="C2" priority="-1">
        <lane id="down_incoming_0" index="0" speed="13.89" length="126.23" shape="198.40,333.43 198.40,207.20"/>
    </edge>
    <edge id="down_leaving" from="C2" to="C1" priority="-1" shape="200.00,200.00 199.95,115.36 199.92,66.69">
        <lane id="down_leaving_0" index="0" speed="13.89" length="126.10" shape="198.40,192.79 198.35,115.36 198.32,66.69"/>
    </edge>
    <edge id="left_incoming" from="D2" to="C2" priority="-1">
        <lane id="left_incoming_0" index="0" speed="13.89" length="128.80" shape="336.00,201.60 207.20,201.60"/>
    </edge>
    <edge id="left_leaving" from="C2" to="B2" priority="-1">
        <lane id="left_leaving_0" index="0" speed="13.89" length="124.29" shape="192.79,201.58 68.50,201.28"/>
    </edge>
    <edge id="right_incoming" from="B2" to="C2" priority="-1">
        <lane id="right_incoming_0" index="0" speed="13.89" length="124.29" shape="68.50,198.08 192.79,198.38"/>
    </edge>
    <edge id="right_leaving" from="C2" to="D2" priority="-1">
        <lane id="right_leaving_0" index="0" speed="13.89" length="128.80" shape="207.20,198.40 336.00,198.40"/>
    </edge>
    <edge id="up_incoming" from="C1" to="C2" priority="-1">
        <lane id="up_incoming_0" index="0" speed="13.89" length="126.10" shape="201.52,66.69 201.60,192.79"/>
    </edge>
    <edge id="up_leaving" from="C2" to="C3" priority="-1">
        <lane id="up_leaving_0" index="0" speed="13.89" length="126.23" shape="201.60,207.20 201.60,333.43"/>
    </edge>

    <junction id="B2" type="dead_end" x="68.50" y="199.68" incLanes="left_leaving_0" intLanes="" shape="68.50,199.68 68.49,202.88 68.50,199.68"/>
    <junction id="C1" type="dead_end" x="199.92" y="66.69" incLanes="down_leaving_0" intLanes="" shape="199.92,66.69 196.72,66.69 199.92,66.69"/>
    <junction id="C2" type="priority" x="200.00" y="200.00" incLanes="down_incoming_0 left_incoming_0 up_incoming_0 right_incoming_0" intLanes=":C2_0_0 :C2_1_0 :C2_12_0 :C2_3_0 :C2_4_0 :C2_5_0 :C2_6_0 :C2_7_0 :C2_13_0 :C2_9_0 :C2_10_0 :C2_11_0" shape="196.80,207.20 203.20,207.20 203.64,204.98 204.20,204.20 204.98,203.64 205.98,203.31 207.20,203.20 207.20,196.80 204.98,196.35 204.20,195.80 203.64,195.02 203.31,194.01 203.20,192.79 196.80,192.79 196.35,195.01 195.80,195.79 195.02,196.34 194.02,196.67 192.80,196.78 192.78,203.18 195.01,203.63 195.80,204.19 196.35,204.97 196.69,205.98">
        <request index="0"  response="000000000000" foes="000100010000" cont="0"/>
        <request index="1"  response="000000000000" foes="111100110000" cont="0"/>
        <request index="2"  response="000111000000" foes="110111110000" cont="1"/>
        <request index="3"  response="000010000000" foes="100010000000" cont="0"/>
        <request index="4"  response="000110000111" foes="100110000111" cont="0"/>
        <request index="5"  response="111110000110" foes="111110000110" cont="0"/>
        <request index="6"  response="000000000000" foes="010000000100" cont="0"/>
        <request index="7"  response="000000000000" foes="110000111100" cont="0"/>
        <request index="8"  response="000000000011" foes="110000110111" cont="1"/>
        <request index="9"  response="000000000010" foes="000000100010" cont="0"/>
        <request index="10" response="000111000110" foes="000111100110" cont="0"/>
        <request index="11" response="000110011110" foes="000110111110" cont="0"/>
    </junction>
    <junction id="C3" type="dead_end" x="200.00" y="333.43" incLanes="up_leaving_0" intLanes="" shape="200.00,333.43 203.20,333.43 200.00,333.43"/>
    <junction id="D2" type="dead_end" x="336.00" y="200.00" incLanes="right_leaving_0" intLanes="" shape="336.00,200.00 336.00,196.80 336.00,200.00"/>

    <junction id=":C2_12_0" type="internal" x="199.04" y="203.20" incLanes=":C2_2_0 up_incoming_0" intLanes=":C2_4_0 :C2_5_0 :C2_6_0 :C2_7_0 :C2_10_0 :C2_11_0"/>
    <junction id=":C2_13_0" type="internal" x="200.96" y="196.80" incLanes=":C2_8_0 down_incoming_0" intLanes=":C2_0_0 :C2_1_0 :C2_4_0 :C2_5_0 :C2_10_0 :C2_11_0"/>

    <connection from="down_incoming" to="left_leaving" fromLane="0" toLane="0" via=":C2_0_0" dir="r" state="M"/>
    <connection from="down_incoming" to="down_leaving" fromLane="0" toLane="0" via=":C2_1_0" dir="s" state="M"/>
    <connection from="down_incoming" to="right_leaving" fromLane="0" toLane="0" via=":C2_2_0" dir="l" state="m"/>
    <connection from="left_incoming" to="up_leaving" fromLane="0" toLane="0" via=":C2_3_0" dir="r" state="m"/>
    <connection from="left_incoming" to="left_leaving" fromLane="0" toLane="0" via=":C2_4_0" dir="s" state="m"/>
    <connection from="left_incoming" to="down_leaving" fromLane="0" toLane="0" via=":C2_5_0" dir="l" state="m"/>
    <connection from="right_incoming" to="down_leaving" fromLane="0" toLane="0" via=":C2_9_0" dir="r" state="m"/>
    <connection from="right_incoming" to="right_leaving" fromLane="0" toLane="0" via=":C2_10_0" dir="s" state="m"/>
    <connection from="right_incoming" to="up_leaving" fromLane="0" toLane="0" via=":C2_11_0" dir="l" state="m"/>
    <connection from="up_incoming" to="right_leaving" fromLane="0" toLane="0" via=":C2_6_0" dir="r" state="M"/>
    <connection from="up_incoming" to="up_leaving" fromLane="0" toLane="0" via=":C2_7_0" dir="s" state="M"/>
    <connection from="up_incoming" to="left_leaving" fromLane="0" toLane="0" via=":C2_8_0" dir="l" state="m"/>

    <connection from=":C2_0" to="left_leaving" fromLane="0" toLane="0" dir="r" state="M"/>
    <connection from=":C2_1" to="down_leaving" fromLane="0" toLane="0" dir="s" state="M"/>
    <connection from=":C2_2" to="right_leaving" fromLane="0" toLane="0" via=":C2_12_0" dir="l" state="m"/>
    <connection from=":C2_12" to="right_leaving" fromLane="0" toLane="0" dir="l" state="M"/>
    <connection from=":C2_3" to="up_leaving" fromLane="0" toLane="0" dir="r" state="M"/>
    <connection from=":C2_4" to="left_leaving" fromLane="0" toLane="0" dir="s" state="M"/>
    <connection from=":C2_5" to="down_leaving" fromLane="0" toLane="0" dir="l" state="M"/>
    <connection from=":C2_6" to="right_leaving" fromLane="0" toLane="0" dir="r" state="M"/>
    <connection from=":C2_7" to="up_leaving" fromLane="0" toLane="0" dir="s" state="M"/>
    <connection from=":C2_8" to="left_leaving" fromLane="0" toLane="0" via=":C2_13_0" dir="l" state="m"/>
    <connection from=":C2_13" to="left_leaving" fromLane="0" toLane="0" dir="l" state="M"/>
    <connection from=":C2_9" to="down_leaving" fromLane="0" toLane="0" dir="r" state="M"/>
    <connection from=":C2_10" to="right_leaving" fromLane="0" toLane="0" dir="s" state="M"/>
    <connection from=":C2_11" to="up_leaving" fromLane="0" toLane="0" dir="l" state="M"/>

</net>
