<?xml version="1.0" encoding="UTF-8"?>

<!-- generated on 2025-04-29 13:23:01 by Eclipse SUMO netedit Version 1.21.0
<neteditConfiguration xmlns:xsi="http://www.w3.org/2001/XMLSchema-instance" xsi:noNamespaceSchemaLocation="http://sumo.dlr.de/xsd/neteditConfiguration.xsd">

    <input>
        <sumocfg-file value="D:\Škola\VirtualPlatooningIntersectionControl\Project\proj\sumo\dialnica.sumocfg"/>
        <sumo-net-file value="D:\Škola\VirtualPlatooningIntersectionControl\Project\proj\sumo\dialnica.net.xml"/>
    </input>

    <output>
        <output-file value="D:\Škola\VirtualPlatooningIntersectionControl\Project\proj\sumo\dialnica.net.xml"/>
    </output>

    <processing>
        <offset.disable-normalization value="true"/>
    </processing>

    <junctions>
        <no-turnarounds value="true"/>
    </junctions>

    <netedit>
        <new-network value="false"/>
    </netedit>

</neteditConfiguration>
-->

<net version="1.20" junctionCornerDetail="5" limitTurnSpeed="5.50" xmlns:xsi="http://www.w3.org/2001/XMLSchema-instance" xsi:noNamespaceSchemaLocation="http://sumo.dlr.de/xsd/net_file.xsd">

    <location netOffset="0.00,0.00" convBoundary="-78.45,-47.56,70.55,49.06" origBoundary="10000000000.00,10000000000.00,-10000000000.00,-10000000000.00" projParameter="!"/>

    <edge id=":clusterJ10_J14_J15_J8_0" function="internal">
        <lane id=":clusterJ10_J14_J15_J8_0_0" index="0" speed="13.89" length="20.14" shape="22.27,-0.07 18.42,-0.78 14.17,-1.56 9.26,-1.47 3.44,0.40"/>
        <lane id=":clusterJ10_J14_J15_J8_0_1" index="1" speed="13.89" length="20.14" shape="22.27,-0.07 18.28,-1.26 13.67,-3.09 8.30,-4.01 2.04,-2.48"/>
    </edge>
    <edge id=":clusterJ10_J14_J15_J8_2" function="internal">
        <lane id=":clusterJ10_J14_J15_J8_2_0" index="0" speed="5.50" length="10.97" shape="21.67,-8.42 18.46,-6.52 17.54,-5.02 18.92,-3.93 22.59,-3.25"/>
    </edge>
    <edge id=":clusterJ10_J14_J15_J8_3" function="internal">
        <lane id=":clusterJ10_J14_J15_J8_3_0" index="0" speed="13.89" length="20.25" shape="21.67,-8.42 3.44,0.40"/>
        <lane id=":clusterJ10_J14_J15_J8_3_1" index="1" speed="13.89" length="20.25" shape="20.27,-11.30 2.04,-2.48"/>
    </edge>
    <edge id=":clusterJ10_J14_J15_J8_5" function="internal">
        <lane id=":clusterJ10_J14_J15_J8_5_0" index="0" speed="10.50" length="13.40" shape="-0.74,-8.24 1.36,-9.79 3.08,-12.21 4.41,-15.50 5.35,-19.67"/>
    </edge>
    <edge id=":clusterJ10_J14_J15_J8_6" function="internal">
        <lane id=":clusterJ10_J14_J15_J8_6_0" index="0" speed="13.89" length="20.25" shape="-0.74,-8.24 17.49,-17.06"/>
        <lane id=":clusterJ10_J14_J15_J8_6_1" index="1" speed="13.89" length="20.25" shape="0.65,-5.36 18.88,-14.18"/>
    </edge>
    <edge id=":clusterclusterJ12_J4_clusterJ13_J6_0" function="internal">
        <lane id=":clusterclusterJ12_J4_clusterJ13_J6_0_0" index="0" speed="9.46" length="12.30" shape="-18.45,10.99 -20.43,12.46 -21.92,14.73 -22.91,17.80 -23.43,21.66"/>
    </edge>
    <edge id=":clusterclusterJ12_J4_clusterJ13_J6_1" function="internal">
        <lane id=":clusterclusterJ12_J4_clusterJ13_J6_1_0" index="0" speed="13.89" length="18.78" shape="-18.45,10.99 -35.36,19.17"/>
        <lane id=":clusterclusterJ12_J4_clusterJ13_J6_1_1" index="1" speed="13.89" length="18.78" shape="-19.84,8.11 -36.75,16.29"/>
    </edge>
    <edge id=":clusterclusterJ12_J4_clusterJ13_J6_3" function="internal">
        <lane id=":clusterclusterJ12_J4_clusterJ13_J6_3_0" index="0" speed="13.89" length="18.50" shape="-39.66,1.88 -36.00,2.87 -32.18,3.86 -27.84,3.97 -22.63,2.35"/>
        <lane id=":clusterclusterJ12_J4_clusterJ13_J6_3_1" index="1" speed="13.89" length="18.50" shape="-39.66,1.88 -35.89,3.37 -31.77,5.44 -26.98,6.56 -21.24,5.23"/>
    </edge>
    <edge id=":clusterclusterJ12_J4_clusterJ13_J6_5" function="internal">
        <lane id=":clusterclusterJ12_J4_clusterJ13_J6_5_0" index="0" speed="5.46" length="10.35" shape="-39.54,10.53 -36.61,8.74 -35.75,7.23 -36.97,5.99 -40.26,5.02"/>
    </edge>
    <edge id=":clusterclusterJ12_J4_clusterJ13_J6_6" function="internal">
        <lane id=":clusterclusterJ12_J4_clusterJ13_J6_6_0" index="0" speed="13.89" length="18.78" shape="-39.54,10.53 -22.63,2.35"/>
        <lane id=":clusterclusterJ12_J4_clusterJ13_J6_6_1" index="1" speed="13.89" length="18.78" shape="-38.15,13.41 -21.24,5.23"/>
    </edge>

    <edge id="-E0" from="J1" to="clusterJ10_J14_J15_J8" priority="-1" shape="60.31,-32.45 4.57,-5.48">
        <lane id="-E0_0" index="0" speed="13.89" length="45.25" shape="62.40,-28.13 21.67,-8.42"/>
        <lane id="-E0_1" index="1" speed="13.89" length="45.25" shape="61.01,-31.01 20.27,-11.30"/>
    </edge>
    <edge id="-E0.61" from="clusterJ10_J14_J15_J8" to="clusterclusterJ12_J4_clusterJ13_J6" priority="-1" shape="4.57,-5.48 -23.89,8.29">
        <lane id="-E0.61_0" index="0" speed="13.89" length="24.32" shape="3.44,0.40 -18.45,10.99"/>
        <lane id="-E0.61_1" index="1" speed="13.89" length="24.32" shape="2.04,-2.48 -19.84,8.11"/>
    </edge>
    <edge id="-E0.93" from="clusterclusterJ12_J4_clusterJ13_J6" to="J0" priority="-1" shape="-23.89,8.29 -78.45,34.69">
        <lane id="-E0.93_0" index="0" speed="13.89" length="45.55" shape="-35.36,19.17 -76.36,39.01"/>
        <lane id="-E0.93_1" index="1" speed="13.89" length="45.55" shape="-36.75,16.29 -77.75,36.13"/>
    </edge>
    <edge id="-E2" from="J5" to="clusterclusterJ12_J4_clusterJ13_J6" priority="-1" shape="-77.27,-3.71 -28.61,5.63">
        <lane id="-E2_0" index="0" speed="13.89" length="37.99" shape="-76.97,-5.28 -39.66,1.88"/>
    </edge>
    <edge id="-E3" from="J7" to="clusterclusterJ12_J4_clusterJ13_J6" priority="-1" shape="-26.74,49.06 -24.52,13.52">
        <lane id="-E3_0" index="0" speed="13.89" length="27.55" shape="-28.33,48.96 -26.62,21.46"/>
    </edge>
    <edge id="-E4" from="J9" to="clusterJ10_J14_J15_J8" priority="-1" shape="70.55,3.12 9.52,-2.94">
        <lane id="-E4_0" index="0" speed="13.89" length="48.36" shape="70.40,4.71 22.27,-0.07"/>
    </edge>
    <edge id="-E5" from="J11" to="clusterJ10_J14_J15_J8" priority="-1" shape="11.52,-47.56 5.51,-10.70">
        <lane id="-E5_0" index="0" speed="13.89" length="28.52" shape="13.10,-47.31 8.51,-19.15"/>
    </edge>
    <edge id="E0" from="J0" to="clusterclusterJ12_J4_clusterJ13_J6" priority="-1" shape="-78.45,34.69 -24.09,8.39">
        <lane id="E0_0" index="0" speed="13.89" length="45.55" shape="-80.54,30.37 -39.54,10.53"/>
        <lane id="E0_1" index="1" speed="13.89" length="45.55" shape="-79.15,33.25 -38.15,13.41"/>
    </edge>
    <edge id="E0.60" from="clusterclusterJ12_J4_clusterJ13_J6" to="clusterJ10_J14_J15_J8" priority="-1" shape="-24.09,8.39 3.13,-4.78">
        <lane id="E0.60_0" index="0" speed="13.89" length="24.32" shape="-22.63,2.35 -0.74,-8.24"/>
        <lane id="E0.60_1" index="1" speed="13.89" length="24.32" shape="-21.24,5.23 0.65,-5.36"/>
    </edge>
    <edge id="E0.90" from="clusterJ10_J14_J15_J8" to="J1" priority="-1" shape="3.13,-4.78 60.31,-32.45">
        <lane id="E0.90_0" index="0" speed="13.89" length="45.25" shape="17.49,-17.06 58.22,-36.77"/>
        <lane id="E0.90_1" index="1" speed="13.89" length="45.25" shape="18.88,-14.18 59.61,-33.89"/>
    </edge>
    <edge id="E2" from="clusterclusterJ12_J4_clusterJ13_J6" to="J5" priority="-1" shape="-28.61,5.63 -77.27,-3.71">
        <lane id="E2_0" index="0" speed="13.89" length="37.99" shape="-40.26,5.02 -77.57,-2.14"/>
    </edge>
    <edge id="E3" from="clusterclusterJ12_J4_clusterJ13_J6" to="J7" priority="-1" shape="-24.52,13.52 -26.74,49.06">
        <lane id="E3_0" index="0" speed="13.89" length="27.55" shape="-23.43,21.66 -25.14,49.16"/>
    </edge>
    <edge id="E4" from="clusterJ10_J14_J15_J8" to="J9" priority="-1" shape="9.52,-2.94 70.55,3.12">
        <lane id="E4_0" index="0" speed="13.89" length="48.36" shape="22.59,-3.25 70.71,1.53"/>
    </edge>
    <edge id="E5" from="clusterJ10_J14_J15_J8" to="J11" priority="-1" shape="5.51,-10.70 11.52,-47.56">
        <lane id="E5_0" index="0" speed="13.89" length="28.52" shape="5.35,-19.67 9.94,-47.82"/>
    </edge>

    <junction id="J0" type="dead_end" x="-78.45" y="34.69" incLanes="-E0.93_0 -E0.93_1" intLanes="" shape="-78.45,34.69 -75.66,40.45 -78.45,34.69"/>
    <junction id="J1" type="dead_end" x="60.31" y="-32.45" incLanes="E0.90_0 E0.90_1" intLanes="" shape="60.31,-32.45 57.52,-38.21 60.31,-32.45"/>
    <junction id="J11" type="dead_end" x="11.52" y="-47.56" incLanes="E5_0" intLanes="" shape="11.52,-47.56 8.36,-48.08 11.52,-47.56"/>
    <junction id="J5" type="dead_end" x="-77.27" y="-3.71" incLanes="E2_0" intLanes="" shape="-77.27,-3.71 -77.87,-0.57 -77.27,-3.71"/>
    <junction id="J7" type="dead_end" x="-26.74" y="49.06" incLanes="E3_0" intLanes="" shape="-26.74,49.06 -23.54,49.26 -26.74,49.06"/>
    <junction id="J9" type="dead_end" x="70.55" y="3.12" incLanes="E4_0" intLanes="" shape="70.55,3.12 70.87,-0.06 70.55,3.12"/>
    <junction id="clusterJ10_J14_J15_J8" type="priority" x="5.68" y="-5.98" incLanes="-E4_0 -E0_0 -E0_1 -E5_0 E0.60_0 E0.60_1" intLanes=":clusterJ10_J14_J15_J8_0_0 :clusterJ10_J14_J15_J8_0_1 :clusterJ10_J14_J15_J8_2_0 :clusterJ10_J14_J15_J8_3_0 :clusterJ10_J14_J15_J8_3_1 :clusterJ10_J14_J15_J8_5_0 :clusterJ10_J14_J15_J8_6_0 :clusterJ10_J14_J15_J8_6_1" shape="22.11,1.53 22.74,-4.84 22.36,-6.98 16.79,-18.50 14.56,-17.53 12.78,-16.97 11.44,-16.82 10.55,-17.10 10.10,-17.79 10.09,-18.90 3.77,-19.93 3.25,-17.31 2.59,-15.06 1.79,-13.17 0.85,-11.65 -0.23,-10.48 -1.44,-9.68 4.13,1.84 7.65,0.40 10.40,-0.18 12.80,-0.12 15.27,0.34 18.24,0.97">
        <request index="0" response="00011000" foes="00011000" cont="0"/>
        <request index="1" response="00011000" foes="00011000" cont="0"/>
        <request index="2" response="00000000" foes="00000000" cont="0"/>
        <request index="3" response="00000000" foes="00000011" cont="0"/>
        <request index="4" response="00000000" foes="00000011" cont="0"/>
        <request index="5" response="00000000" foes="00000000" cont="0"/>
        <request index="6" response="00000000" foes="00000000" cont="0"/>
        <request index="7" response="00000000" foes="00000000" cont="0"/>
    </junction>
    <junction id="clusterclusterJ12_J4_clusterJ13_J6" type="priority" x="-25.28" y="8.96" incLanes="-E0.61_0 -E0.61_1 -E2_0 E0_0 E0_1 -E3_0" intLanes=":clusterclusterJ12_J4_clusterJ13_J6_0_0 :clusterclusterJ12_J4_clusterJ13_J6_1_0 :clusterclusterJ12_J4_clusterJ13_J6_1_1 :clusterclusterJ12_J4_clusterJ13_J6_3_0 :clusterclusterJ12_J4_clusterJ13_J6_3_1 :clusterclusterJ12_J4_clusterJ13_J6_5_0 :clusterclusterJ12_J4_clusterJ13_J6_6_0 :clusterclusterJ12_J4_clusterJ13_J6_6_1" shape="-17.75,12.43 -23.33,0.91 -26.48,2.18 -28.94,2.64 -31.10,2.49 -33.31,1.91 -35.94,1.12 -39.36,0.31 -40.56,6.59 -38.78,7.21 -38.52,7.59 -38.67,8.04 -39.24,8.54 -40.24,9.09 -34.66,20.61 -32.62,19.73 -30.97,19.26 -29.70,19.18 -28.82,19.51 -28.33,20.24 -28.22,21.37 -21.83,21.76 -21.58,19.40 -21.16,17.35 -20.57,15.64 -19.81,14.24 -18.87,13.17">
        <request index="0" response="00000000" foes="00000000" cont="0"/>
        <request index="1" response="00000000" foes="00000000" cont="0"/>
        <request index="2" response="00000000" foes="00000000" cont="0"/>
        <request index="3" response="11000000" foes="11000000" cont="0"/>
        <request index="4" response="11000000" foes="11000000" cont="0"/>
        <request index="5" response="00000000" foes="00000000" cont="0"/>
        <request index="6" response="00000000" foes="00011000" cont="0"/>
        <request index="7" response="00000000" foes="00011000" cont="0"/>
    </junction>

    <connection from="-E0" to="E4" fromLane="0" toLane="0" via=":clusterJ10_J14_J15_J8_2_0" dir="r" state="M"/>
    <connection from="-E0" to="-E0.61" fromLane="0" toLane="0" via=":clusterJ10_J14_J15_J8_3_0" dir="s" state="M"/>
    <connection from="-E0" to="-E0.61" fromLane="1" toLane="1" via=":clusterJ10_J14_J15_J8_3_1" dir="s" state="M"/>
    <connection from="-E0.61" to="E3" fromLane="0" toLane="0" via=":clusterclusterJ12_J4_clusterJ13_J6_0_0" dir="r" state="M"/>
    <connection from="-E0.61" to="-E0.93" fromLane="0" toLane="0" via=":clusterclusterJ12_J4_clusterJ13_J6_1_0" dir="s" state="M"/>
    <connection from="-E0.61" to="-E0.93" fromLane="1" toLane="1" via=":clusterclusterJ12_J4_clusterJ13_J6_1_1" dir="s" state="M"/>
    <connection from="-E2" to="E0.60" fromLane="0" toLane="0" via=":clusterclusterJ12_J4_clusterJ13_J6_3_0" dir="s" state="m"/>
    <connection from="-E2" to="E0.60" fromLane="0" toLane="1" via=":clusterclusterJ12_J4_clusterJ13_J6_3_1" dir="s" state="m"/>
    <connection from="-E4" to="-E0.61" fromLane="0" toLane="0" via=":clusterJ10_J14_J15_J8_0_0" dir="s" state="m"/>
    <connection from="-E4" to="-E0.61" fromLane="0" toLane="1" via=":clusterJ10_J14_J15_J8_0_1" dir="s" state="m"/>
    <connection from="E0" to="E2" fromLane="0" toLane="0" via=":clusterclusterJ12_J4_clusterJ13_J6_5_0" dir="r" state="M"/>
    <connection from="E0" to="E0.60" fromLane="0" toLane="0" via=":clusterclusterJ12_J4_clusterJ13_J6_6_0" dir="s" state="M"/>
    <connection from="E0" to="E0.60" fromLane="1" toLane="1" via=":clusterclusterJ12_J4_clusterJ13_J6_6_1" dir="s" state="M"/>
    <connection from="E0.60" to="E5" fromLane="0" toLane="0" via=":clusterJ10_J14_J15_J8_5_0" dir="r" state="M"/>
    <connection from="E0.60" to="E0.90" fromLane="0" toLane="0" via=":clusterJ10_J14_J15_J8_6_0" dir="s" state="M"/>
    <connection from="E0.60" to="E0.90" fromLane="1" toLane="1" via=":clusterJ10_J14_J15_J8_6_1" dir="s" state="M"/>

    <connection from=":clusterJ10_J14_J15_J8_0" to="-E0.61" fromLane="0" toLane="0" dir="s" state="M"/>
    <connection from=":clusterJ10_J14_J15_J8_0" to="-E0.61" fromLane="1" toLane="1" dir="s" state="M"/>
    <connection from=":clusterJ10_J14_J15_J8_2" to="E4" fromLane="0" toLane="0" dir="r" state="M"/>
    <connection from=":clusterJ10_J14_J15_J8_3" to="-E0.61" fromLane="0" toLane="0" dir="s" state="M"/>
    <connection from=":clusterJ10_J14_J15_J8_3" to="-E0.61" fromLane="1" toLane="1" dir="s" state="M"/>
    <connection from=":clusterJ10_J14_J15_J8_5" to="E5" fromLane="0" toLane="0" dir="r" state="M"/>
    <connection from=":clusterJ10_J14_J15_J8_6" to="E0.90" fromLane="0" toLane="0" dir="s" state="M"/>
    <connection from=":clusterJ10_J14_J15_J8_6" to="E0.90" fromLane="1" toLane="1" dir="s" state="M"/>
    <connection from=":clusterclusterJ12_J4_clusterJ13_J6_0" to="E3" fromLane="0" toLane="0" dir="r" state="M"/>
    <connection from=":clusterclusterJ12_J4_clusterJ13_J6_1" to="-E0.93" fromLane="0" toLane="0" dir="s" state="M"/>
    <connection from=":clusterclusterJ12_J4_clusterJ13_J6_1" to="-E0.93" fromLane="1" toLane="1" dir="s" state="M"/>
    <connection from=":clusterclusterJ12_J4_clusterJ13_J6_3" to="E0.60" fromLane="0" toLane="0" dir="s" state="M"/>
    <connection from=":clusterclusterJ12_J4_clusterJ13_J6_3" to="E0.60" fromLane="1" toLane="1" dir="s" state="M"/>
    <connection from=":clusterclusterJ12_J4_clusterJ13_J6_5" to="E2" fromLane="0" toLane="0" dir="r" state="M"/>
    <connection from=":clusterclusterJ12_J4_clusterJ13_J6_6" to="E0.60" fromLane="0" toLane="0" dir="s" state="M"/>
    <connection from=":clusterclusterJ12_J4_clusterJ13_J6_6" to="E0.60" fromLane="1" toLane="1" dir="s" state="M"/>

</net>
