<?xml version="1.0" encoding="UTF-8"?>

<!-- generated on 2025-04-29 13:23:01 by Eclipse SUMO netedit Version 1.21.0
-->

<routes xmlns:xsi="http://www.w3.org/2001/XMLSchema-instance" xsi:noNamespaceSchemaLocation="http://sumo.dlr.de/xsd/routes_file.xsd">
    <!-- Routes -->
    <route id="r_0" edges="E0 E0.60 E0.90"/>
    <route id="r_1" edges="E0 E0.60 E5"/>
    <route id="r_10" edges="-E2 E0.60 E5"/>
    <route id="r_2" edges="E2"/>
    <route id="r_3" edges="E0 E2"/>
    <route id="r_4" edges="-E0 -E0.61 -E0.93"/>
    <route id="r_5" edges="-E0 -E0.61 E3"/>
    <route id="r_6" edges="-E0 E4"/>
    <route id="r_7" edges="-E4 -E0.61 -E0.93"/>
    <route id="r_8" edges="-E4 -E0.61 E3"/>
    <route id="r_9" edges="-E2 E0.60 E0.90"/>
</routes>
