<?xml version="1.0" encoding="UTF-8"?>

<!-- generated on 2025-04-29 13:23:01 by Eclipse SUMO sumo Version 1.21.0
-->

<sumoConfiguration xmlns:xsi="http://www.w3.org/2001/XMLSchema-instance" xsi:noNamespaceSchemaLocation="http://sumo.dlr.de/xsd/sumoConfiguration.xsd">

    <input>
        <net-file value="dialnica.net.xml"/>
        <route-files value="dialnica.rou.xml"/>
        <additional-files value="dialnica.add.xml"/>
    </input>

</sumoConfiguration>
