<?xml version="1.0" encoding="UTF-8"?>

<!-- generated on 2025-04-29 12:59:57 by Eclipse SUMO netedit Version 1.21.0
-->

<routes xmlns:xsi="http://www.w3.org/2001/XMLSchema-instance" xsi:noNamespaceSchemaLocation="http://sumo.dlr.de/xsd/routes_file.xsd">
    <!-- Routes -->
    <route id="r_0" edges="-E0 -E0.42 -E0.78"/>
    <route id="r_1" edges="-E0 E2"/>
    <route id="r_10" edges="-E1 E0.40 E2"/>
    <route id="r_11" edges="-E1 E0.40 E0.79"/>
    <route id="r_2" edges="-E0 -E0.42 E1"/>
    <route id="r_3" edges="-E2 E0.79"/>
    <route id="r_4" edges="-E2 -E0.42 -E0.78"/>
    <route id="r_5" edges="-E2 -E0.42 E1"/>
    <route id="r_6" edges="E0 E1"/>
    <route id="r_7" edges="E0 E0.40 E0.79"/>
    <route id="r_8" edges="E0 E0.40 E2"/>
    <route id="r_9" edges="-E1 -E0.78"/>
</routes>
