<?xml version="1.0" encoding="UTF-8"?>

<!-- generated on 2025-04-29 12:59:57 by Eclipse SUMO sumo Version 1.21.0
-->

<sumoConfiguration xmlns:xsi="http://www.w3.org/2001/XMLSchema-instance" xsi:noNamespaceSchemaLocation="http://sumo.dlr.de/xsd/sumoConfiguration.xsd">

    <input>
        <net-file value="krizovatka2.net.xml"/>
        <route-files value="krizovatka2.rou.xml"/>
        <additional-files value="krizovatka2.add.xml"/>
    </input>

</sumoConfiguration>
